data_functionalizedCrystal
_audit_creation_method	'MofGen! by Chris Wilmer'
_symmetry_space_group_name_H-M	'P1'
_symmetry_Int_Tables_number	1
_symmetry_cell_setting	triclinic
loop_
_symmetry_equiv_pos_as_xyz
  x,y,z
_cell_length_a	14.044220
_cell_length_b	15.944551
_cell_length_c	12.503572
_cell_angle_alpha	93.522593
_cell_angle_beta	86.164750
_cell_angle_gamma	88.343808
loop_
_atom_site_label
_atom_site_type_symbol
_atom_site_fract_x
_atom_site_fract_y
_atom_site_fract_z
O1	O	1.263178	0.198062	-0.089210
O2	O	1.513178	0.448062	0.160790
O3	O	1.763178	0.698062	0.410790
O4	O	2.013178	0.948062	0.660790
O5	O	0.987210	0.190753	-0.089237
O6	O	1.237210	0.440753	0.160763
O7	O	1.487210	0.690753	0.410763
O8	O	1.737210	0.940753	0.660763
O9	O	1.132730	0.072697	-0.089213
O10	O	1.382730	0.322697	0.160787
O11	O	1.632730	0.572697	0.410787
O12	O	1.882730	0.822697	0.660787
O13	O	1.117659	0.316117	-0.089234
O14	O	1.367659	0.566117	0.160766
O15	O	1.617659	0.816117	0.410766
O16	O	1.867659	1.066117	0.660766
O17	O	1.121786	0.081592	0.089427
O18	O	1.371786	0.331592	0.339427
O19	O	1.621786	0.581592	0.589427
O20	O	1.871786	0.831592	0.839427
O21	O	0.976267	0.199647	0.089403
O22	O	1.226267	0.449647	0.339403
O23	O	1.476267	0.699647	0.589403
O24	O	1.726267	0.949647	0.839403
O25	O	1.252235	0.206956	0.089430
O26	O	1.502235	0.456956	0.339430
O27	O	1.752235	0.706956	0.589430
O28	O	2.002235	0.956956	0.839430
Cu29	Cu	1.113251	0.204114	0.105728
Cu30	Cu	1.363251	0.454114	0.355728
Cu31	Cu	1.613251	0.704114	0.605728
Cu32	Cu	1.863251	0.954114	0.855728
Cu33	Cu	1.126194	0.193595	-0.105535
Cu34	Cu	1.376194	0.443595	0.144465
Cu35	Cu	1.626194	0.693595	0.394465
Cu36	Cu	1.876194	0.943595	0.644465
O37	O	1.106715	0.325012	0.089406
O38	O	1.356715	0.575012	0.339406
O39	O	1.606715	0.825012	0.589406
O40	O	1.856715	1.075012	0.839406
C41	C	0.946424	0.192001	0.000079
C42	C	1.196424	0.442001	0.250079
C43	C	1.446424	0.692001	0.500079
C44	C	1.696424	0.942001	0.750079
C45	C	0.841198	0.182459	0.000069
C46	C	1.091198	0.432459	0.250069
C47	C	1.341198	0.682459	0.500069
C48	C	1.591198	0.932459	0.750069
C49	C	1.126632	0.045804	0.000107
C50	C	1.376632	0.295804	0.250107
C51	C	1.626632	0.545804	0.500107
C52	C	1.876632	0.795804	0.750107
C53	C	1.124756	-0.047583	0.000107
C54	C	1.374756	0.202417	0.250107
C55	C	1.624756	0.452417	0.500107
C56	C	1.874756	0.702417	0.750107
C57	C	0.648534	0.165017	0.000092
C58	C	0.898534	0.415017	0.250092
C59	C	1.148534	0.665017	0.500092
C60	C	1.398534	0.915017	0.750092
C61	C	0.590906	0.232688	0.000091
C62	C	0.840906	0.482688	0.250091
C63	C	1.090906	0.732688	0.500091
C64	C	1.340906	0.982688	0.750091
C65	C	0.483701	0.222983	0.000104
C66	C	0.733701	0.472983	0.250104
C67	C	0.983701	0.722983	0.500104
C68	C	1.233701	0.972983	0.750104
C69	C	0.755749	0.174721	0.000079
C70	C	1.005749	0.424721	0.250079
C71	C	1.255749	0.674721	0.500079
C72	C	1.505749	0.924721	0.750079
C73	C	1.030073	-0.269530	0.000083
C74	C	1.280073	-0.019530	0.250083
C75	C	1.530073	0.230470	0.500083
C76	C	1.780073	0.480470	0.750083
C77	C	1.068645	-0.322870	0.088168
C78	C	1.318645	-0.072870	0.338168
C79	C	1.568645	0.177130	0.588168
C80	C	1.818645	0.427130	0.838168
C81	C	1.121363	-0.218563	0.000099
C82	C	1.371363	0.031437	0.250099
C83	C	1.621363	0.281437	0.500099
C84	C	1.871363	0.531437	0.750099
C85	C	1.079457	-0.331621	-0.087957
C86	C	1.329457	-0.081621	0.162043
C87	C	1.579457	0.168379	0.412043
C88	C	1.829457	0.418379	0.662043
C89	C	1.118079	-0.383722	0.000086
C90	C	1.368079	-0.133722	0.250086
C91	C	1.618079	0.116278	0.500086
C92	C	1.868079	0.366278	0.750086
C93	C	1.159956	-0.270669	0.088256
C94	C	1.409956	-0.020669	0.338256
C95	C	1.659956	0.229331	0.588256
C96	C	1.909956	0.479331	0.838256
C97	C	1.170759	-0.279418	-0.087948
C98	C	1.420759	-0.029418	0.162052
C99	C	1.670759	0.220582	0.412052
C100	C	1.920759	0.470582	0.662052
C101	C	1.209396	-0.332734	0.000158
C102	C	1.459396	-0.082734	0.250158
C103	C	1.709396	0.167266	0.500158
C104	C	1.959396	0.417266	0.750158
C105	C	1.123252	-0.123419	0.000107
C106	C	1.373252	0.126581	0.250107
C107	C	1.623252	0.376581	0.500107
C108	C	1.873252	0.626581	0.750107
C109	C	1.116197	-0.478865	0.000085
C110	C	1.366197	-0.228865	0.250085
C111	C	1.616197	0.021135	0.500085
C112	C	1.866197	0.271135	0.750085
C113	C	1.293021	0.205708	0.000111
C114	C	1.543021	0.455708	0.250111
C115	C	1.793021	0.705708	0.500111
C116	C	2.043021	0.955708	0.750111
C117	C	1.398247	0.215249	0.000114
C118	C	1.648247	0.465249	0.250114
C119	C	1.898247	0.715249	0.500114
C120	C	2.148247	0.965249	0.750114
C121	C	1.112813	0.351905	0.000083
C122	C	1.362813	0.601905	0.250083
C123	C	1.612813	0.851905	0.500083
C124	C	1.862813	1.101905	0.750083
C125	C	1.114689	0.445291	0.000076
C126	C	1.364689	0.695291	0.250076
C127	C	1.614689	0.945291	0.500076
C128	C	1.864689	1.195291	0.750076
N129	N	1.104155	0.211512	0.254318
N130	N	1.354155	0.461512	0.504318
N131	N	1.604155	0.711512	0.754318
N132	N	1.854155	0.961512	1.004318
N133	N	1.135297	0.186191	-0.254126
N134	N	1.385297	0.436191	-0.004126
N135	N	1.635297	0.686191	0.245874
N136	N	1.885297	0.936191	0.495874
C137	C	1.090774	0.222403	0.473431
C138	C	1.340774	0.472403	0.723431
C139	C	1.590774	0.722403	0.973431
C140	C	1.840774	0.972403	1.223431
C141	C	1.148675	0.175303	0.526768
C142	C	1.398675	0.425303	0.776768
C143	C	1.648675	0.675303	1.026768
C144	C	1.898675	0.925303	1.276768
C145	C	1.141230	0.181362	0.648690
C146	C	1.391230	0.431362	0.898690
C147	C	1.641230	0.681362	1.148690
C148	C	1.891230	0.931362	1.398690
C149	C	1.098218	0.216344	0.351498
C150	C	1.348218	0.466344	0.601498
C151	C	1.598218	0.716344	0.851498
C152	C	1.848218	0.966344	1.101498
H153	H	0.622081	0.297911	0.000080
H154	H	0.872081	0.547911	0.250080
H155	H	1.122081	0.797911	0.500080
H156	H	1.372081	1.047911	0.750080
F157	F	0.607788	0.079770	0.000102
F158	F	0.857788	0.329770	0.250102
F159	F	1.107788	0.579770	0.500102
F160	F	1.357788	0.829770	0.750102
F161	F	1.012216	-0.348086	0.185495
F162	F	1.262216	-0.098086	0.435495
F163	F	1.512216	0.151914	0.685495
F164	F	1.762216	0.401914	0.935495
F165	F	0.931023	-0.233407	0.000183
F166	F	1.181023	0.016593	0.250183
F167	F	1.431023	0.266593	0.500183
F168	F	1.681023	0.516593	0.750183
H169	H	1.193969	-0.244078	0.162806
H170	H	1.443969	0.005922	0.412806
H171	H	1.693969	0.255922	0.662806
H172	H	1.943969	0.505922	0.912806
F173	F	1.308522	-0.368651	0.000229
F174	F	1.558522	-0.118651	0.250229
F175	F	1.808522	0.131349	0.500229
F176	F	2.058522	0.381349	0.750229
F177	F	1.227149	-0.254175	-0.185280
F178	F	1.477149	-0.004175	0.064720
F179	F	1.727149	0.245825	0.314720
F180	F	1.977149	0.495825	0.564720
H181	H	1.045395	-0.358298	-0.162431
H182	H	1.295395	-0.108298	0.087569
H183	H	1.545395	0.141702	0.337569
H184	H	1.795395	0.391702	0.587569
F185	F	1.221060	0.116922	0.466773
F186	F	1.471060	0.366922	0.716773
F187	F	1.721060	0.616922	0.966773
F188	F	1.971060	0.866922	1.216773
F189	F	1.018679	0.281055	0.533425
F190	F	1.268679	0.531055	0.783425
F191	F	1.518679	0.781055	1.033425
F192	F	1.768679	1.031055	1.283425
